cimhub_docker/master_base.glm
object line_configuration {
  name "lcon_1p_ug_code4_A";
  z11 0.405140+0.410718j;
  c11 3.6537;
}
object triplex_line_configuration {
  name "tcon_2p_code10_12";
  z11 0.139476+0.328574j;
  z12 0.0467868+0.117318j;
  z21 0.0467868+0.117318j;
  z22 0.140665+0.324642j;
}
object line_configuration {
  name "lcon_2p_oh_code0_BC";
  z22 0.139476+0.328574j;
  c22 4.1356;
  z23 0.0467868+0.117318j;
  c23 -0.8529;
  z32 0.0467868+0.117318j;
  c32 -0.8529;
  z33 0.140665+0.324642j;
  c33 4.1801;
}
object line_configuration {
  name "lcon_3p_code7_ABC";
  z11 0.139476+0.328574j;
  c11 4.5893;
  z12 0.0475488+0.152918j;
  c12 -1.4810;
  z13 0.0467868+0.117318j;
  c13 -0.5645;
  z21 0.0475488+0.152918j;
  c21 -1.4810;
  z22 0.142220+0.319491j;
  c22 4.8354;
  z23 0.0481584+0.129113j;
  c23 -0.9415;
  z31 0.0467868+0.117318j;
  c31 -0.5645;
  z32 0.0481584+0.129113j;
  c32 -0.9415;
  z33 0.140665+0.324642j;
  c33 4.3634;
}
object line_configuration {
  name "lcon_3p_oh_code6_ABC";
  z11 0.139476+0.328574j;
  c11 4.5893;
  z12 0.0475488+0.152918j;
  c12 -1.4810;
  z13 0.0467868+0.117318j;
  c13 -0.5645;
  z21 0.0475488+0.152918j;
  c21 -1.4810;
  z22 0.142220+0.319491j;
  c22 4.8354;
  z23 0.0481584+0.129113j;
  c23 -0.9415;
  z31 0.0467868+0.117318j;
  c31 -0.5645;
  z32 0.0481584+0.129113j;
  c32 -0.9415;
  z33 0.140665+0.324642j;
  c33 4.3634;
}
object line_configuration {
  name "lcon_3p_oh_code1_ABC";
  z11 0.139476+0.328574j;
  c11 4.5893;
  z12 0.0475488+0.152918j;
  c12 -1.4810;
  z13 0.0467868+0.117318j;
  c13 -0.5645;
  z21 0.0475488+0.152918j;
  c21 -1.4810;
  z22 0.142220+0.319491j;
  c22 4.8354;
  z23 0.0481584+0.129113j;
  c23 -0.9415;
  z31 0.0467868+0.117318j;
  c31 -0.5645;
  z32 0.0481584+0.129113j;
  c32 -0.9415;
  z33 0.140665+0.324642j;
  c33 4.3634;
}
object line_configuration {
  name "lcon_3p_ug_code5_ABC";
  z11 0.139476+0.328574j;
  c11 4.5893;
  z12 0.0475488+0.152918j;
  c12 -1.4810;
  z13 0.0467868+0.117318j;
  c13 -0.5645;
  z21 0.0475488+0.152918j;
  c21 -1.4810;
  z22 0.142220+0.319491j;
  c22 4.8354;
  z23 0.0481584+0.129113j;
  c23 -0.9415;
  z31 0.0467868+0.117318j;
  c31 -0.5645;
  z32 0.0481584+0.129113j;
  c32 -0.9415;
  z33 0.140665+0.324642j;
  c33 4.3634;
}
object line_configuration {
  name "lcon_1p_oh_code3_C";
  z33 0.405140+0.410718j;
  c33 3.6537;
}
object line_configuration {
  name "lcon_1p_oh_code9_B";
  z22 0.405140+0.410718j;
  c22 3.6537;
}
object line_configuration {
  name "lcon_1p_oh_code8_A";
  z11 0.405140+0.410718j;
  c11 3.6537;
}
object line_configuration {
  name "lcon_2p_oh_code2_AC";
  z11 0.139476+0.328574j;
  c11 4.1356;
  z13 0.0467868+0.117318j;
  c13 -0.8529;
  z31 0.0467868+0.117318j;
  c31 -0.8529;
  z33 0.140665+0.324642j;
  c33 4.1801;
}
object transformer_configuration {
  name "xcon_cimxfmrcode_xfmr_611_c_2";
  power_rating 10000.000;
  primary_voltage 2400.000;
  secondary_voltage 120.000;
  connect_type SINGLE_PHASE_CENTER_TAPPED;
  impedance 1.65000e-05+0.0163200j;
  impedance1 3.30000e-05+0.00816000j;
  impedance2 3.30000e-05+0.00816000j;
}
object transformer_configuration {
  name "xcon_cimxfmrcode_xfmr_684_c_2";
  power_rating 10000.000;
  primary_voltage 2400.000;
  secondary_voltage 120.000;
  connect_type SINGLE_PHASE_CENTER_TAPPED;
  impedance 1.65000e-05+0.0163200j;
  impedance1 3.30000e-05+0.00816000j;
  impedance2 3.30000e-05+0.00816000j;
}
object transformer_configuration {
  name "xcon_cimxfmrcode_xfmr_611_c_1";
  power_rating 10000.000;
  primary_voltage 2400.000;
  secondary_voltage 120.000;
  connect_type SINGLE_PHASE_CENTER_TAPPED;
  impedance 1.65000e-05+0.0163200j;
  impedance1 3.30000e-05+0.00816000j;
  impedance2 3.30000e-05+0.00816000j;
}
object transformer_configuration {
  name "xcon_cimxfmrcode_xfmr_684_c_1";
  power_rating 10000.000;
  primary_voltage 2400.000;
  secondary_voltage 120.000;
  connect_type SINGLE_PHASE_CENTER_TAPPED;
  impedance 1.65000e-05+0.0163200j;
  impedance1 3.30000e-05+0.00816000j;
  impedance2 3.30000e-05+0.00816000j;
}
object transformer_configuration {
  name "xcon_cimxfmrcode_xfmr_611_c_4";
  power_rating 10000.000;
  primary_voltage 2400.000;
  secondary_voltage 120.000;
  connect_type SINGLE_PHASE_CENTER_TAPPED;
  impedance 1.65000e-05+0.0163200j;
  impedance1 3.30000e-05+0.00816000j;
  impedance2 3.30000e-05+0.00816000j;
}
object transformer_configuration {
  name "xcon_cimxfmrcode_xfmr_671_a_5";
  power_rating 10000.000;
  primary_voltage 2400.000;
  secondary_voltage 120.000;
  connect_type SINGLE_PHASE_CENTER_TAPPED;
  impedance 1.65000e-05+0.0163200j;
  impedance1 3.30000e-05+0.00816000j;
  impedance2 3.30000e-05+0.00816000j;
}
object transformer_configuration {
  name "xcon_cimxfmrcode_xfmr_684_c_4";
  power_rating 10000.000;
  primary_voltage 2400.000;
  secondary_voltage 120.000;
  connect_type SINGLE_PHASE_CENTER_TAPPED;
  impedance 1.65000e-05+0.0163200j;
  impedance1 3.30000e-05+0.00816000j;
  impedance2 3.30000e-05+0.00816000j;
}
object transformer_configuration {
  name "xcon_cimxfmrcode_xfmr_611_c_3";
  power_rating 10000.000;
  primary_voltage 2400.000;
  secondary_voltage 120.000;
  connect_type SINGLE_PHASE_CENTER_TAPPED;
  impedance 1.65000e-05+0.0163200j;
  impedance1 3.30000e-05+0.00816000j;
  impedance2 3.30000e-05+0.00816000j;
}
object transformer_configuration {
  name "xcon_cimxfmrcode_xfmr_684_c_3";
  power_rating 10000.000;
  primary_voltage 2400.000;
  secondary_voltage 120.000;
  connect_type SINGLE_PHASE_CENTER_TAPPED;
  impedance 1.65000e-05+0.0163200j;
  impedance1 3.30000e-05+0.00816000j;
  impedance2 3.30000e-05+0.00816000j;
}
object transformer_configuration {
  name "xcon_cimxfmrcode_xfmr_633_b_4";
  power_rating 10000.000;
  primary_voltage 2400.000;
  secondary_voltage 120.000;
  connect_type SINGLE_PHASE_CENTER_TAPPED;
  impedance 1.65000e-05+0.0163200j;
  impedance1 3.30000e-05+0.00816000j;
  impedance2 3.30000e-05+0.00816000j;
}
object transformer_configuration {
  name "xcon_cimxfmrcode_xfmr_671_a_3";
  power_rating 10000.000;
  primary_voltage 2400.000;
  secondary_voltage 120.000;
  connect_type SINGLE_PHASE_CENTER_TAPPED;
  impedance 1.65000e-05+0.0163200j;
  impedance1 3.30000e-05+0.00816000j;
  impedance2 3.30000e-05+0.00816000j;
}
object transformer_configuration {
  name "xcon_cimxfmrcode_xfmr_611_c_5";
  power_rating 10000.000;
  primary_voltage 2400.000;
  secondary_voltage 120.000;
  connect_type SINGLE_PHASE_CENTER_TAPPED;
  impedance 1.65000e-05+0.0163200j;
  impedance1 3.30000e-05+0.00816000j;
  impedance2 3.30000e-05+0.00816000j;
}
object transformer_configuration {
  name "xcon_cimxfmrcode_xfmr_633_b_5";
  power_rating 10000.000;
  primary_voltage 2400.000;
  secondary_voltage 120.000;
  connect_type SINGLE_PHASE_CENTER_TAPPED;
  impedance 1.65000e-05+0.0163200j;
  impedance1 3.30000e-05+0.00816000j;
  impedance2 3.30000e-05+0.00816000j;
}
object transformer_configuration {
  name "xcon_cimxfmrcode_xfmr_671_a_4";
  power_rating 10000.000;
  primary_voltage 2400.000;
  secondary_voltage 120.000;
  connect_type SINGLE_PHASE_CENTER_TAPPED;
  impedance 1.65000e-05+0.0163200j;
  impedance1 3.30000e-05+0.00816000j;
  impedance2 3.30000e-05+0.00816000j;
}
object transformer_configuration {
  name "xcon_cimxfmrcode_xfmr_633_b_2";
  power_rating 10000.000;
  primary_voltage 2400.000;
  secondary_voltage 120.000;
  connect_type SINGLE_PHASE_CENTER_TAPPED;
  impedance 1.65000e-05+0.0163200j;
  impedance1 3.30000e-05+0.00816000j;
  impedance2 3.30000e-05+0.00816000j;
}
object transformer_configuration {
  name "xcon_cimxfmrcode_xfmr_671_a_1";
  power_rating 10000.000;
  primary_voltage 2400.000;
  secondary_voltage 120.000;
  connect_type SINGLE_PHASE_CENTER_TAPPED;
  impedance 1.65000e-05+0.0163200j;
  impedance1 3.30000e-05+0.00816000j;
  impedance2 3.30000e-05+0.00816000j;
}
object transformer_configuration {
  name "xcon_cimxfmrcode_xfmr_633_b_3";
  power_rating 10000.000;
  primary_voltage 2400.000;
  secondary_voltage 120.000;
  connect_type SINGLE_PHASE_CENTER_TAPPED;
  impedance 1.65000e-05+0.0163200j;
  impedance1 3.30000e-05+0.00816000j;
  impedance2 3.30000e-05+0.00816000j;
}
object transformer_configuration {
  name "xcon_cimxfmrcode_xfmr_671_a_2";
  power_rating 10000.000;
  primary_voltage 2400.000;
  secondary_voltage 120.000;
  connect_type SINGLE_PHASE_CENTER_TAPPED;
  impedance 1.65000e-05+0.0163200j;
  impedance1 3.30000e-05+0.00816000j;
  impedance2 3.30000e-05+0.00816000j;
}
object transformer_configuration {
  name "xcon_cimxfmrcode_xfmr_633_b_1";
  power_rating 10000.000;
  primary_voltage 2400.000;
  secondary_voltage 120.000;
  connect_type SINGLE_PHASE_CENTER_TAPPED;
  impedance 1.65000e-05+0.0163200j;
  impedance1 3.30000e-05+0.00816000j;
  impedance2 3.30000e-05+0.00816000j;
}
object transformer_configuration {
  name "xcon_cimxfmrcode_xfmr_684_c_5";
  power_rating 10000.000;
  primary_voltage 2400.000;
  secondary_voltage 120.000;
  connect_type SINGLE_PHASE_CENTER_TAPPED;
  impedance 1.65000e-05+0.0163200j;
  impedance1 3.30000e-05+0.00816000j;
  impedance2 3.30000e-05+0.00816000j;
}
object transformer_configuration {
  name "xcon_cimxfmrcode_xfmr_645_b_5";
  power_rating 10000.000;
  primary_voltage 2400.000;
  secondary_voltage 120.000;
  connect_type SINGLE_PHASE_CENTER_TAPPED;
  impedance 1.65000e-05+0.0163200j;
  impedance1 3.30000e-05+0.00816000j;
  impedance2 3.30000e-05+0.00816000j;
}
object transformer_configuration {
  name "xcon_cimxfmrcode_xfmr_645_b_4";
  power_rating 10000.000;
  primary_voltage 2400.000;
  secondary_voltage 120.000;
  connect_type SINGLE_PHASE_CENTER_TAPPED;
  impedance 1.65000e-05+0.0163200j;
  impedance1 3.30000e-05+0.00816000j;
  impedance2 3.30000e-05+0.00816000j;
}
object transformer_configuration {
  name "xcon_cimxfmrcode_xfmr_645_b_3";
  power_rating 10000.000;
  primary_voltage 2400.000;
  secondary_voltage 120.000;
  connect_type SINGLE_PHASE_CENTER_TAPPED;
  impedance 1.65000e-05+0.0163200j;
  impedance1 3.30000e-05+0.00816000j;
  impedance2 3.30000e-05+0.00816000j;
}
object transformer_configuration {
  name "xcon_cimxfmrcode_xfmr_645_b_2";
  power_rating 10000.000;
  primary_voltage 2400.000;
  secondary_voltage 120.000;
  connect_type SINGLE_PHASE_CENTER_TAPPED;
  impedance 1.65000e-05+0.0163200j;
  impedance1 3.30000e-05+0.00816000j;
  impedance2 3.30000e-05+0.00816000j;
}
object transformer_configuration {
  name "xcon_cimxfmrcode_xfmr_645_b_1";
  power_rating 10000.000;
  primary_voltage 2400.000;
  secondary_voltage 120.000;
  connect_type SINGLE_PHASE_CENTER_TAPPED;
  impedance 1.65000e-05+0.0163200j;
  impedance1 3.30000e-05+0.00816000j;
  impedance2 3.30000e-05+0.00816000j;
}
object transformer_configuration {
  name "xcon_cimxfmrcode_xfmr_692_b_5";
  power_rating 10000.000;
  primary_voltage 2400.000;
  secondary_voltage 120.000;
  connect_type SINGLE_PHASE_CENTER_TAPPED;
  impedance 1.65000e-05+0.0163200j;
  impedance1 3.30000e-05+0.00816000j;
  impedance2 3.30000e-05+0.00816000j;
}
object transformer_configuration {
  name "xcon_cimxfmrcode_xfmr_692_b_2";
  power_rating 10000.000;
  primary_voltage 2400.000;
  secondary_voltage 120.000;
  connect_type SINGLE_PHASE_CENTER_TAPPED;
  impedance 1.65000e-05+0.0163200j;
  impedance1 3.30000e-05+0.00816000j;
  impedance2 3.30000e-05+0.00816000j;
}
object transformer_configuration {
  name "xcon_cimxfmrcode_xfmr_692_b_1";
  power_rating 10000.000;
  primary_voltage 2400.000;
  secondary_voltage 120.000;
  connect_type SINGLE_PHASE_CENTER_TAPPED;
  impedance 1.65000e-05+0.0163200j;
  impedance1 3.30000e-05+0.00816000j;
  impedance2 3.30000e-05+0.00816000j;
}
object transformer_configuration {
  name "xcon_cimxfmrcode_xfmr_692_b_4";
  power_rating 10000.000;
  primary_voltage 2400.000;
  secondary_voltage 120.000;
  connect_type SINGLE_PHASE_CENTER_TAPPED;
  impedance 1.65000e-05+0.0163200j;
  impedance1 3.30000e-05+0.00816000j;
  impedance2 3.30000e-05+0.00816000j;
}
object transformer_configuration {
  name "xcon_cimxfmrcode_xfmr_692_b_3";
  power_rating 10000.000;
  primary_voltage 2400.000;
  secondary_voltage 120.000;
  connect_type SINGLE_PHASE_CENTER_TAPPED;
  impedance 1.65000e-05+0.0163200j;
  impedance1 3.30000e-05+0.00816000j;
  impedance2 3.30000e-05+0.00816000j;
}
object transformer_configuration {
  name "xcon_cimxfmrcode_xfmr_652_a_1";
  power_rating 10000.000;
  primary_voltage 2400.000;
  secondary_voltage 120.000;
  connect_type SINGLE_PHASE_CENTER_TAPPED;
  impedance 1.65000e-05+0.0163200j;
  impedance1 3.30000e-05+0.00816000j;
  impedance2 3.30000e-05+0.00816000j;
}
object transformer_configuration {
  name "xcon_cimxfmrcode_xfmr_652_a_4";
  power_rating 10000.000;
  primary_voltage 2400.000;
  secondary_voltage 120.000;
  connect_type SINGLE_PHASE_CENTER_TAPPED;
  impedance 1.65000e-05+0.0163200j;
  impedance1 3.30000e-05+0.00816000j;
  impedance2 3.30000e-05+0.00816000j;
}
object transformer_configuration {
  name "xcon_cimxfmrcode_xfmr_652_a_5";
  power_rating 10000.000;
  primary_voltage 2400.000;
  secondary_voltage 120.000;
  connect_type SINGLE_PHASE_CENTER_TAPPED;
  impedance 1.65000e-05+0.0163200j;
  impedance1 3.30000e-05+0.00816000j;
  impedance2 3.30000e-05+0.00816000j;
}
object transformer_configuration {
  name "xcon_cimxfmrcode_xfmr_652_a_2";
  power_rating 10000.000;
  primary_voltage 2400.000;
  secondary_voltage 120.000;
  connect_type SINGLE_PHASE_CENTER_TAPPED;
  impedance 1.65000e-05+0.0163200j;
  impedance1 3.30000e-05+0.00816000j;
  impedance2 3.30000e-05+0.00816000j;
}
object transformer_configuration {
  name "xcon_cimxfmrcode_xfmr_652_a_3";
  power_rating 10000.000;
  primary_voltage 2400.000;
  secondary_voltage 120.000;
  connect_type SINGLE_PHASE_CENTER_TAPPED;
  impedance 1.65000e-05+0.0163200j;
  impedance1 3.30000e-05+0.00816000j;
  impedance2 3.30000e-05+0.00816000j;
}
object transformer_configuration {
  name "xcon_cimxfmrcode_xfmr_671_b_4";
  power_rating 10000.000;
  primary_voltage 2400.000;
  secondary_voltage 120.000;
  connect_type SINGLE_PHASE_CENTER_TAPPED;
  impedance 1.65000e-05+0.0163200j;
  impedance1 3.30000e-05+0.00816000j;
  impedance2 3.30000e-05+0.00816000j;
}
object transformer_configuration {
  name "xcon_cimxfmrcode_xfmr_671_b_5";
  power_rating 10000.000;
  primary_voltage 2400.000;
  secondary_voltage 120.000;
  connect_type SINGLE_PHASE_CENTER_TAPPED;
  impedance 1.65000e-05+0.0163200j;
  impedance1 3.30000e-05+0.00816000j;
  impedance2 3.30000e-05+0.00816000j;
}
object transformer_configuration {
  name "xcon_cimxfmrcode_xfmr_633_a_5";
  power_rating 10000.000;
  primary_voltage 2400.000;
  secondary_voltage 120.000;
  connect_type SINGLE_PHASE_CENTER_TAPPED;
  impedance 1.65000e-05+0.0163200j;
  impedance1 3.30000e-05+0.00816000j;
  impedance2 3.30000e-05+0.00816000j;
}
object transformer_configuration {
  name "xcon_cimxfmrcode_xfmr_671_b_2";
  power_rating 10000.000;
  primary_voltage 2400.000;
  secondary_voltage 120.000;
  connect_type SINGLE_PHASE_CENTER_TAPPED;
  impedance 1.65000e-05+0.0163200j;
  impedance1 3.30000e-05+0.00816000j;
  impedance2 3.30000e-05+0.00816000j;
}
object transformer_configuration {
  name "xcon_cimxfmrcode_xfmr_671_b_3";
  power_rating 10000.000;
  primary_voltage 2400.000;
  secondary_voltage 120.000;
  connect_type SINGLE_PHASE_CENTER_TAPPED;
  impedance 1.65000e-05+0.0163200j;
  impedance1 3.30000e-05+0.00816000j;
  impedance2 3.30000e-05+0.00816000j;
}
object transformer_configuration {
  name "xcon_cimxfmrcode_xfmr_633_a_3";
  power_rating 10000.000;
  primary_voltage 2400.000;
  secondary_voltage 120.000;
  connect_type SINGLE_PHASE_CENTER_TAPPED;
  impedance 1.65000e-05+0.0163200j;
  impedance1 3.30000e-05+0.00816000j;
  impedance2 3.30000e-05+0.00816000j;
}
object transformer_configuration {
  name "xcon_cimxfmrcode_xfmr_632_c_1";
  power_rating 10000.000;
  primary_voltage 2400.000;
  secondary_voltage 120.000;
  connect_type SINGLE_PHASE_CENTER_TAPPED;
  impedance 1.65000e-05+0.0163200j;
  impedance1 3.30000e-05+0.00816000j;
  impedance2 3.30000e-05+0.00816000j;
}
object transformer_configuration {
  name "xcon_cimxfmrcode_xfmr_633_a_4";
  power_rating 10000.000;
  primary_voltage 2400.000;
  secondary_voltage 120.000;
  connect_type SINGLE_PHASE_CENTER_TAPPED;
  impedance 1.65000e-05+0.0163200j;
  impedance1 3.30000e-05+0.00816000j;
  impedance2 3.30000e-05+0.00816000j;
}
object transformer_configuration {
  name "xcon_cimxfmrcode_xfmr_671_b_1";
  power_rating 10000.000;
  primary_voltage 2400.000;
  secondary_voltage 120.000;
  connect_type SINGLE_PHASE_CENTER_TAPPED;
  impedance 1.65000e-05+0.0163200j;
  impedance1 3.30000e-05+0.00816000j;
  impedance2 3.30000e-05+0.00816000j;
}
object transformer_configuration {
  name "xcon_cimxfmrcode_xfmr_632_c_2";
  power_rating 10000.000;
  primary_voltage 2400.000;
  secondary_voltage 120.000;
  connect_type SINGLE_PHASE_CENTER_TAPPED;
  impedance 1.65000e-05+0.0163200j;
  impedance1 3.30000e-05+0.00816000j;
  impedance2 3.30000e-05+0.00816000j;
}
object transformer_configuration {
  name "xcon_cimxfmrcode_xfmr_633_a_1";
  power_rating 10000.000;
  primary_voltage 2400.000;
  secondary_voltage 120.000;
  connect_type SINGLE_PHASE_CENTER_TAPPED;
  impedance 1.65000e-05+0.0163200j;
  impedance1 3.30000e-05+0.00816000j;
  impedance2 3.30000e-05+0.00816000j;
}
object transformer_configuration {
  name "xcon_cimxfmrcode_xfmr_632_c_3";
  power_rating 10000.000;
  primary_voltage 2400.000;
  secondary_voltage 120.000;
  connect_type SINGLE_PHASE_CENTER_TAPPED;
  impedance 1.65000e-05+0.0163200j;
  impedance1 3.30000e-05+0.00816000j;
  impedance2 3.30000e-05+0.00816000j;
}
object transformer_configuration {
  name "xcon_cimxfmrcode_xfmr_633_a_2";
  power_rating 10000.000;
  primary_voltage 2400.000;
  secondary_voltage 120.000;
  connect_type SINGLE_PHASE_CENTER_TAPPED;
  impedance 1.65000e-05+0.0163200j;
  impedance1 3.30000e-05+0.00816000j;
  impedance2 3.30000e-05+0.00816000j;
}
object transformer_configuration {
  name "xcon_cimxfmrcode_xfmr_632_c_4";
  power_rating 10000.000;
  primary_voltage 2400.000;
  secondary_voltage 120.000;
  connect_type SINGLE_PHASE_CENTER_TAPPED;
  impedance 1.65000e-05+0.0163200j;
  impedance1 3.30000e-05+0.00816000j;
  impedance2 3.30000e-05+0.00816000j;
}
object transformer_configuration {
  name "xcon_cimxfmrcode_xfmr_632_c_5";
  power_rating 10000.000;
  primary_voltage 2400.000;
  secondary_voltage 120.000;
  connect_type SINGLE_PHASE_CENTER_TAPPED;
  impedance 1.65000e-05+0.0163200j;
  impedance1 3.30000e-05+0.00816000j;
  impedance2 3.30000e-05+0.00816000j;
}
object transformer_configuration {
  name "xcon_cimxfmrcode_xfmr_680_a_3";
  power_rating 10000.000;
  primary_voltage 2400.000;
  secondary_voltage 120.000;
  connect_type SINGLE_PHASE_CENTER_TAPPED;
  impedance 1.65000e-05+0.0163200j;
  impedance1 3.30000e-05+0.00816000j;
  impedance2 3.30000e-05+0.00816000j;
}
object transformer_configuration {
  name "xcon_cimxfmrcode_xfmr_680_a_4";
  power_rating 10000.000;
  primary_voltage 2400.000;
  secondary_voltage 120.000;
  connect_type SINGLE_PHASE_CENTER_TAPPED;
  impedance 1.65000e-05+0.0163200j;
  impedance1 3.30000e-05+0.00816000j;
  impedance2 3.30000e-05+0.00816000j;
}
object transformer_configuration {
  name "xcon_cimxfmrcode_xfmr_680_a_5";
  power_rating 10000.000;
  primary_voltage 2400.000;
  secondary_voltage 120.000;
  connect_type SINGLE_PHASE_CENTER_TAPPED;
  impedance 1.65000e-05+0.0163200j;
  impedance1 3.30000e-05+0.00816000j;
  impedance2 3.30000e-05+0.00816000j;
}
object transformer_configuration {
  name "xcon_cimxfmrcode_xfmr_645_c_5";
  power_rating 10000.000;
  primary_voltage 2400.000;
  secondary_voltage 120.000;
  connect_type SINGLE_PHASE_CENTER_TAPPED;
  impedance 1.65000e-05+0.0163200j;
  impedance1 3.30000e-05+0.00816000j;
  impedance2 3.30000e-05+0.00816000j;
}
object transformer_configuration {
  name "xcon_cimxfmrcode_xfmr_680_a_1";
  power_rating 10000.000;
  primary_voltage 2400.000;
  secondary_voltage 120.000;
  connect_type SINGLE_PHASE_CENTER_TAPPED;
  impedance 1.65000e-05+0.0163200j;
  impedance1 3.30000e-05+0.00816000j;
  impedance2 3.30000e-05+0.00816000j;
}
object transformer_configuration {
  name "xcon_cimxfmrcode_xfmr_645_c_4";
  power_rating 10000.000;
  primary_voltage 2400.000;
  secondary_voltage 120.000;
  connect_type SINGLE_PHASE_CENTER_TAPPED;
  impedance 1.65000e-05+0.0163200j;
  impedance1 3.30000e-05+0.00816000j;
  impedance2 3.30000e-05+0.00816000j;
}
object transformer_configuration {
  name "xcon_cimxfmrcode_xfmr_680_a_2";
  power_rating 10000.000;
  primary_voltage 2400.000;
  secondary_voltage 120.000;
  connect_type SINGLE_PHASE_CENTER_TAPPED;
  impedance 1.65000e-05+0.0163200j;
  impedance1 3.30000e-05+0.00816000j;
  impedance2 3.30000e-05+0.00816000j;
}
object transformer_configuration {
  name "xcon_cimxfmrcode_xfmr_645_c_3";
  power_rating 10000.000;
  primary_voltage 2400.000;
  secondary_voltage 120.000;
  connect_type SINGLE_PHASE_CENTER_TAPPED;
  impedance 1.65000e-05+0.0163200j;
  impedance1 3.30000e-05+0.00816000j;
  impedance2 3.30000e-05+0.00816000j;
}
object transformer_configuration {
  name "xcon_cimxfmrcode_xfmr_675_c_5";
  power_rating 10000.000;
  primary_voltage 2400.000;
  secondary_voltage 120.000;
  connect_type SINGLE_PHASE_CENTER_TAPPED;
  impedance 1.65000e-05+0.0163200j;
  impedance1 3.30000e-05+0.00816000j;
  impedance2 3.30000e-05+0.00816000j;
}
object transformer_configuration {
  name "xcon_cimxfmrcode_xfmr_645_c_2";
  power_rating 10000.000;
  primary_voltage 2400.000;
  secondary_voltage 120.000;
  connect_type SINGLE_PHASE_CENTER_TAPPED;
  impedance 1.65000e-05+0.0163200j;
  impedance1 3.30000e-05+0.00816000j;
  impedance2 3.30000e-05+0.00816000j;
}
object transformer_configuration {
  name "xcon_cimxfmrcode_xfmr_645_c_1";
  power_rating 10000.000;
  primary_voltage 2400.000;
  secondary_voltage 120.000;
  connect_type SINGLE_PHASE_CENTER_TAPPED;
  impedance 1.65000e-05+0.0163200j;
  impedance1 3.30000e-05+0.00816000j;
  impedance2 3.30000e-05+0.00816000j;
}
object transformer_configuration {
  name "xcon_cimxfmrcode_xfmr_675_c_3";
  power_rating 10000.000;
  primary_voltage 2400.000;
  secondary_voltage 120.000;
  connect_type SINGLE_PHASE_CENTER_TAPPED;
  impedance 1.65000e-05+0.0163200j;
  impedance1 3.30000e-05+0.00816000j;
  impedance2 3.30000e-05+0.00816000j;
}
object transformer_configuration {
  name "xcon_cimxfmrcode_xfmr_675_c_4";
  power_rating 10000.000;
  primary_voltage 2400.000;
  secondary_voltage 120.000;
  connect_type SINGLE_PHASE_CENTER_TAPPED;
  impedance 1.65000e-05+0.0163200j;
  impedance1 3.30000e-05+0.00816000j;
  impedance2 3.30000e-05+0.00816000j;
}
object transformer_configuration {
  name "xcon_cimxfmrcode_xfmr_675_c_1";
  power_rating 10000.000;
  primary_voltage 2400.000;
  secondary_voltage 120.000;
  connect_type SINGLE_PHASE_CENTER_TAPPED;
  impedance 1.65000e-05+0.0163200j;
  impedance1 3.30000e-05+0.00816000j;
  impedance2 3.30000e-05+0.00816000j;
}
object transformer_configuration {
  name "xcon_cimxfmrcode_xfmr_692_c_5";
  power_rating 10000.000;
  primary_voltage 2400.000;
  secondary_voltage 120.000;
  connect_type SINGLE_PHASE_CENTER_TAPPED;
  impedance 1.65000e-05+0.0163200j;
  impedance1 3.30000e-05+0.00816000j;
  impedance2 3.30000e-05+0.00816000j;
}
object transformer_configuration {
  name "xcon_cimxfmrcode_xfmr_675_c_2";
  power_rating 10000.000;
  primary_voltage 2400.000;
  secondary_voltage 120.000;
  connect_type SINGLE_PHASE_CENTER_TAPPED;
  impedance 1.65000e-05+0.0163200j;
  impedance1 3.30000e-05+0.00816000j;
  impedance2 3.30000e-05+0.00816000j;
}
object transformer_configuration {
  name "xcon_cimxfmrcode_xfmr_692_c_4";
  power_rating 10000.000;
  primary_voltage 2400.000;
  secondary_voltage 120.000;
  connect_type SINGLE_PHASE_CENTER_TAPPED;
  impedance 1.65000e-05+0.0163200j;
  impedance1 3.30000e-05+0.00816000j;
  impedance2 3.30000e-05+0.00816000j;
}
object transformer_configuration {
  name "xcon_cimxfmrcode_xfmr_692_c_1";
  power_rating 10000.000;
  primary_voltage 2400.000;
  secondary_voltage 120.000;
  connect_type SINGLE_PHASE_CENTER_TAPPED;
  impedance 1.65000e-05+0.0163200j;
  impedance1 3.30000e-05+0.00816000j;
  impedance2 3.30000e-05+0.00816000j;
}
object transformer_configuration {
  name "xcon_cimxfmrcode_xfmr_692_c_3";
  power_rating 10000.000;
  primary_voltage 2400.000;
  secondary_voltage 120.000;
  connect_type SINGLE_PHASE_CENTER_TAPPED;
  impedance 1.65000e-05+0.0163200j;
  impedance1 3.30000e-05+0.00816000j;
  impedance2 3.30000e-05+0.00816000j;
}
object transformer_configuration {
  name "xcon_cimxfmrcode_xfmr_692_c_2";
  power_rating 10000.000;
  primary_voltage 2400.000;
  secondary_voltage 120.000;
  connect_type SINGLE_PHASE_CENTER_TAPPED;
  impedance 1.65000e-05+0.0163200j;
  impedance1 3.30000e-05+0.00816000j;
  impedance2 3.30000e-05+0.00816000j;
}
object transformer_configuration {
  name "xcon_cimxfmrcode_xfmr_671_c_5";
  power_rating 10000.000;
  primary_voltage 2400.000;
  secondary_voltage 120.000;
  connect_type SINGLE_PHASE_CENTER_TAPPED;
  impedance 1.65000e-05+0.0163200j;
  impedance1 3.30000e-05+0.00816000j;
  impedance2 3.30000e-05+0.00816000j;
}
object transformer_configuration {
  name "xcon_cimxfmrcode_xfmr_684_a_4";
  power_rating 10000.000;
  primary_voltage 2400.000;
  secondary_voltage 120.000;
  connect_type SINGLE_PHASE_CENTER_TAPPED;
  impedance 1.65000e-05+0.0163200j;
  impedance1 3.30000e-05+0.00816000j;
  impedance2 3.30000e-05+0.00816000j;
}
object transformer_configuration {
  name "xcon_cimxfmrcode_xfmr_684_a_3";
  power_rating 10000.000;
  primary_voltage 2400.000;
  secondary_voltage 120.000;
  connect_type SINGLE_PHASE_CENTER_TAPPED;
  impedance 1.65000e-05+0.0163200j;
  impedance1 3.30000e-05+0.00816000j;
  impedance2 3.30000e-05+0.00816000j;
}
object transformer_configuration {
  name "xcon_cimxfmrcode_xfmr_671_c_3";
  power_rating 10000.000;
  primary_voltage 2400.000;
  secondary_voltage 120.000;
  connect_type SINGLE_PHASE_CENTER_TAPPED;
  impedance 1.65000e-05+0.0163200j;
  impedance1 3.30000e-05+0.00816000j;
  impedance2 3.30000e-05+0.00816000j;
}
object transformer_configuration {
  name "xcon_cimxfmrcode_xfmr_671_c_4";
  power_rating 10000.000;
  primary_voltage 2400.000;
  secondary_voltage 120.000;
  connect_type SINGLE_PHASE_CENTER_TAPPED;
  impedance 1.65000e-05+0.0163200j;
  impedance1 3.30000e-05+0.00816000j;
  impedance2 3.30000e-05+0.00816000j;
}
object transformer_configuration {
  name "xcon_cimxfmrcode_xfmr_684_a_5";
  power_rating 10000.000;
  primary_voltage 2400.000;
  secondary_voltage 120.000;
  connect_type SINGLE_PHASE_CENTER_TAPPED;
  impedance 1.65000e-05+0.0163200j;
  impedance1 3.30000e-05+0.00816000j;
  impedance2 3.30000e-05+0.00816000j;
}
object transformer_configuration {
  name "xcon_cimxfmrcode_xfmr_671_c_1";
  power_rating 10000.000;
  primary_voltage 2400.000;
  secondary_voltage 120.000;
  connect_type SINGLE_PHASE_CENTER_TAPPED;
  impedance 1.65000e-05+0.0163200j;
  impedance1 3.30000e-05+0.00816000j;
  impedance2 3.30000e-05+0.00816000j;
}
object transformer_configuration {
  name "xcon_cimxfmrcode_xfmr_671_c_2";
  power_rating 10000.000;
  primary_voltage 2400.000;
  secondary_voltage 120.000;
  connect_type SINGLE_PHASE_CENTER_TAPPED;
  impedance 1.65000e-05+0.0163200j;
  impedance1 3.30000e-05+0.00816000j;
  impedance2 3.30000e-05+0.00816000j;
}
object transformer_configuration {
  name "xcon_cimxfmrcode_xfmr_632_b_1";
  power_rating 10000.000;
  primary_voltage 2400.000;
  secondary_voltage 120.000;
  connect_type SINGLE_PHASE_CENTER_TAPPED;
  impedance 1.65000e-05+0.0163200j;
  impedance1 3.30000e-05+0.00816000j;
  impedance2 3.30000e-05+0.00816000j;
}
object transformer_configuration {
  name "xcon_cimxfmrcode_xfmr_684_a_2";
  power_rating 10000.000;
  primary_voltage 2400.000;
  secondary_voltage 120.000;
  connect_type SINGLE_PHASE_CENTER_TAPPED;
  impedance 1.65000e-05+0.0163200j;
  impedance1 3.30000e-05+0.00816000j;
  impedance2 3.30000e-05+0.00816000j;
}
object transformer_configuration {
  name "xcon_cimxfmrcode_xfmr_632_b_2";
  power_rating 10000.000;
  primary_voltage 2400.000;
  secondary_voltage 120.000;
  connect_type SINGLE_PHASE_CENTER_TAPPED;
  impedance 1.65000e-05+0.0163200j;
  impedance1 3.30000e-05+0.00816000j;
  impedance2 3.30000e-05+0.00816000j;
}
object transformer_configuration {
  name "xcon_cimxfmrcode_xfmr_684_a_1";
  power_rating 10000.000;
  primary_voltage 2400.000;
  secondary_voltage 120.000;
  connect_type SINGLE_PHASE_CENTER_TAPPED;
  impedance 1.65000e-05+0.0163200j;
  impedance1 3.30000e-05+0.00816000j;
  impedance2 3.30000e-05+0.00816000j;
}
object transformer_configuration {
  name "xcon_cimxfmrcode_xfmr_632_b_3";
  power_rating 10000.000;
  primary_voltage 2400.000;
  secondary_voltage 120.000;
  connect_type SINGLE_PHASE_CENTER_TAPPED;
  impedance 1.65000e-05+0.0163200j;
  impedance1 3.30000e-05+0.00816000j;
  impedance2 3.30000e-05+0.00816000j;
}
object transformer_configuration {
  name "xcon_cimxfmrcode_xfmr_632_b_4";
  power_rating 10000.000;
  primary_voltage 2400.000;
  secondary_voltage 120.000;
  connect_type SINGLE_PHASE_CENTER_TAPPED;
  impedance 1.65000e-05+0.0163200j;
  impedance1 3.30000e-05+0.00816000j;
  impedance2 3.30000e-05+0.00816000j;
}
object transformer_configuration {
  name "xcon_cimxfmrcode_xfmr_632_b_5";
  power_rating 10000.000;
  primary_voltage 2400.000;
  secondary_voltage 120.000;
  connect_type SINGLE_PHASE_CENTER_TAPPED;
  impedance 1.65000e-05+0.0163200j;
  impedance1 3.30000e-05+0.00816000j;
  impedance2 3.30000e-05+0.00816000j;
}
object transformer_configuration {
  name "xcon_cimxfmrcode_xfmr_680_b_2";
  power_rating 10000.000;
  primary_voltage 2400.000;
  secondary_voltage 120.000;
  connect_type SINGLE_PHASE_CENTER_TAPPED;
  impedance 1.65000e-05+0.0163200j;
  impedance1 3.30000e-05+0.00816000j;
  impedance2 3.30000e-05+0.00816000j;
}
object transformer_configuration {
  name "xcon_cimxfmrcode_xfmr_680_b_3";
  power_rating 10000.000;
  primary_voltage 2400.000;
  secondary_voltage 120.000;
  connect_type SINGLE_PHASE_CENTER_TAPPED;
  impedance 1.65000e-05+0.0163200j;
  impedance1 3.30000e-05+0.00816000j;
  impedance2 3.30000e-05+0.00816000j;
}
object transformer_configuration {
  name "xcon_cimxfmrcode_xfmr_680_b_4";
  power_rating 10000.000;
  primary_voltage 2400.000;
  secondary_voltage 120.000;
  connect_type SINGLE_PHASE_CENTER_TAPPED;
  impedance 1.65000e-05+0.0163200j;
  impedance1 3.30000e-05+0.00816000j;
  impedance2 3.30000e-05+0.00816000j;
}
object transformer_configuration {
  name "xcon_cimxfmrcode_xfmr_680_b_5";
  power_rating 10000.000;
  primary_voltage 2400.000;
  secondary_voltage 120.000;
  connect_type SINGLE_PHASE_CENTER_TAPPED;
  impedance 1.65000e-05+0.0163200j;
  impedance1 3.30000e-05+0.00816000j;
  impedance2 3.30000e-05+0.00816000j;
}
object transformer_configuration {
  name "xcon_cimxfmrcode_xfmr_680_b_1";
  power_rating 10000.000;
  primary_voltage 2400.000;
  secondary_voltage 120.000;
  connect_type SINGLE_PHASE_CENTER_TAPPED;
  impedance 1.65000e-05+0.0163200j;
  impedance1 3.30000e-05+0.00816000j;
  impedance2 3.30000e-05+0.00816000j;
}
object transformer_configuration {
  name "xcon_cimxfmrcode_xfmr_675_b_4";
  power_rating 10000.000;
  primary_voltage 2400.000;
  secondary_voltage 120.000;
  connect_type SINGLE_PHASE_CENTER_TAPPED;
  impedance 1.65000e-05+0.0163200j;
  impedance1 3.30000e-05+0.00816000j;
  impedance2 3.30000e-05+0.00816000j;
}
object transformer_configuration {
  name "xcon_cimxfmrcode_xfmr_675_b_5";
  power_rating 10000.000;
  primary_voltage 2400.000;
  secondary_voltage 120.000;
  connect_type SINGLE_PHASE_CENTER_TAPPED;
  impedance 1.65000e-05+0.0163200j;
  impedance1 3.30000e-05+0.00816000j;
  impedance2 3.30000e-05+0.00816000j;
}
object transformer_configuration {
  name "xcon_cimxfmrcode_xfmr_675_b_2";
  power_rating 10000.000;
  primary_voltage 2400.000;
  secondary_voltage 120.000;
  connect_type SINGLE_PHASE_CENTER_TAPPED;
  impedance 1.65000e-05+0.0163200j;
  impedance1 3.30000e-05+0.00816000j;
  impedance2 3.30000e-05+0.00816000j;
}
object transformer_configuration {
  name "xcon_cimxfmrcode_xfmr_675_b_3";
  power_rating 10000.000;
  primary_voltage 2400.000;
  secondary_voltage 120.000;
  connect_type SINGLE_PHASE_CENTER_TAPPED;
  impedance 1.65000e-05+0.0163200j;
  impedance1 3.30000e-05+0.00816000j;
  impedance2 3.30000e-05+0.00816000j;
}
object transformer_configuration {
  name "xcon_cimxfmrcode_xfmr_675_b_1";
  power_rating 10000.000;
  primary_voltage 2400.000;
  secondary_voltage 120.000;
  connect_type SINGLE_PHASE_CENTER_TAPPED;
  impedance 1.65000e-05+0.0163200j;
  impedance1 3.30000e-05+0.00816000j;
  impedance2 3.30000e-05+0.00816000j;
}
object transformer_configuration {
  name "xcon_cimxfmrcode_xfmr_633_c_5";
  power_rating 10000.000;
  primary_voltage 2400.000;
  secondary_voltage 120.000;
  connect_type SINGLE_PHASE_CENTER_TAPPED;
  impedance 1.65000e-05+0.0163200j;
  impedance1 3.30000e-05+0.00816000j;
  impedance2 3.30000e-05+0.00816000j;
}
object transformer_configuration {
  name "xcon_cimxfmrcode_xfmr_692_a_1";
  power_rating 10000.000;
  primary_voltage 2400.000;
  secondary_voltage 120.000;
  connect_type SINGLE_PHASE_CENTER_TAPPED;
  impedance 1.65000e-05+0.0163200j;
  impedance1 3.30000e-05+0.00816000j;
  impedance2 3.30000e-05+0.00816000j;
}
object transformer_configuration {
  name "xcon_cimxfmrcode_xfmr_633_c_3";
  power_rating 10000.000;
  primary_voltage 2400.000;
  secondary_voltage 120.000;
  connect_type SINGLE_PHASE_CENTER_TAPPED;
  impedance 1.65000e-05+0.0163200j;
  impedance1 3.30000e-05+0.00816000j;
  impedance2 3.30000e-05+0.00816000j;
}
object transformer_configuration {
  name "xcon_cimxfmrcode_xfmr_632_a_1";
  power_rating 10000.000;
  primary_voltage 2400.000;
  secondary_voltage 120.000;
  connect_type SINGLE_PHASE_CENTER_TAPPED;
  impedance 1.65000e-05+0.0163200j;
  impedance1 3.30000e-05+0.00816000j;
  impedance2 3.30000e-05+0.00816000j;
}
object transformer_configuration {
  name "xcon_cimxfmrcode_xfmr_633_c_4";
  power_rating 10000.000;
  primary_voltage 2400.000;
  secondary_voltage 120.000;
  connect_type SINGLE_PHASE_CENTER_TAPPED;
  impedance 1.65000e-05+0.0163200j;
  impedance1 3.30000e-05+0.00816000j;
  impedance2 3.30000e-05+0.00816000j;
}
object transformer_configuration {
  name "xcon_cimxfmrcode_xfmr_632_a_2";
  power_rating 10000.000;
  primary_voltage 2400.000;
  secondary_voltage 120.000;
  connect_type SINGLE_PHASE_CENTER_TAPPED;
  impedance 1.65000e-05+0.0163200j;
  impedance1 3.30000e-05+0.00816000j;
  impedance2 3.30000e-05+0.00816000j;
}
object transformer_configuration {
  name "xcon_cimxfmrcode_xfmr_633_c_1";
  power_rating 10000.000;
  primary_voltage 2400.000;
  secondary_voltage 120.000;
  connect_type SINGLE_PHASE_CENTER_TAPPED;
  impedance 1.65000e-05+0.0163200j;
  impedance1 3.30000e-05+0.00816000j;
  impedance2 3.30000e-05+0.00816000j;
}
object transformer_configuration {
  name "xcon_cimxfmrcode_xfmr_632_a_3";
  power_rating 10000.000;
  primary_voltage 2400.000;
  secondary_voltage 120.000;
  connect_type SINGLE_PHASE_CENTER_TAPPED;
  impedance 1.65000e-05+0.0163200j;
  impedance1 3.30000e-05+0.00816000j;
  impedance2 3.30000e-05+0.00816000j;
}
object transformer_configuration {
  name "xcon_cimxfmrcode_xfmr_633_c_2";
  power_rating 10000.000;
  primary_voltage 2400.000;
  secondary_voltage 120.000;
  connect_type SINGLE_PHASE_CENTER_TAPPED;
  impedance 1.65000e-05+0.0163200j;
  impedance1 3.30000e-05+0.00816000j;
  impedance2 3.30000e-05+0.00816000j;
}
object transformer_configuration {
  name "xcon_cimxfmrcode_xfmr_632_a_4";
  power_rating 10000.000;
  primary_voltage 2400.000;
  secondary_voltage 120.000;
  connect_type SINGLE_PHASE_CENTER_TAPPED;
  impedance 1.65000e-05+0.0163200j;
  impedance1 3.30000e-05+0.00816000j;
  impedance2 3.30000e-05+0.00816000j;
}
object transformer_configuration {
  name "xcon_cimxfmrcode_xfmr_680_c_5";
  power_rating 10000.000;
  primary_voltage 2400.000;
  secondary_voltage 120.000;
  connect_type SINGLE_PHASE_CENTER_TAPPED;
  impedance 1.65000e-05+0.0163200j;
  impedance1 3.30000e-05+0.00816000j;
  impedance2 3.30000e-05+0.00816000j;
}
object transformer_configuration {
  name "xcon_cimxfmrcode_xfmr_632_a_5";
  power_rating 10000.000;
  primary_voltage 2400.000;
  secondary_voltage 120.000;
  connect_type SINGLE_PHASE_CENTER_TAPPED;
  impedance 1.65000e-05+0.0163200j;
  impedance1 3.30000e-05+0.00816000j;
  impedance2 3.30000e-05+0.00816000j;
}
object transformer_configuration {
  name "xcon_cimxfmrcode_xfmr_680_c_1";
  power_rating 10000.000;
  primary_voltage 2400.000;
  secondary_voltage 120.000;
  connect_type SINGLE_PHASE_CENTER_TAPPED;
  impedance 1.65000e-05+0.0163200j;
  impedance1 3.30000e-05+0.00816000j;
  impedance2 3.30000e-05+0.00816000j;
}
object transformer_configuration {
  name "xcon_cimxfmrcode_xfmr_680_c_2";
  power_rating 10000.000;
  primary_voltage 2400.000;
  secondary_voltage 120.000;
  connect_type SINGLE_PHASE_CENTER_TAPPED;
  impedance 1.65000e-05+0.0163200j;
  impedance1 3.30000e-05+0.00816000j;
  impedance2 3.30000e-05+0.00816000j;
}
object transformer_configuration {
  name "xcon_cimxfmrcode_xfmr_680_c_3";
  power_rating 10000.000;
  primary_voltage 2400.000;
  secondary_voltage 120.000;
  connect_type SINGLE_PHASE_CENTER_TAPPED;
  impedance 1.65000e-05+0.0163200j;
  impedance1 3.30000e-05+0.00816000j;
  impedance2 3.30000e-05+0.00816000j;
}
object transformer_configuration {
  name "xcon_cimxfmrcode_xfmr_680_c_4";
  power_rating 10000.000;
  primary_voltage 2400.000;
  secondary_voltage 120.000;
  connect_type SINGLE_PHASE_CENTER_TAPPED;
  impedance 1.65000e-05+0.0163200j;
  impedance1 3.30000e-05+0.00816000j;
  impedance2 3.30000e-05+0.00816000j;
}
object transformer_configuration {
  name "xcon_cimxfmrcode_xfmr_675_a_5";
  power_rating 10000.000;
  primary_voltage 2400.000;
  secondary_voltage 120.000;
  connect_type SINGLE_PHASE_CENTER_TAPPED;
  impedance 1.65000e-05+0.0163200j;
  impedance1 3.30000e-05+0.00816000j;
  impedance2 3.30000e-05+0.00816000j;
}
object transformer_configuration {
  name "xcon_cimxfmrcode_xfmr_675_a_3";
  power_rating 10000.000;
  primary_voltage 2400.000;
  secondary_voltage 120.000;
  connect_type SINGLE_PHASE_CENTER_TAPPED;
  impedance 1.65000e-05+0.0163200j;
  impedance1 3.30000e-05+0.00816000j;
  impedance2 3.30000e-05+0.00816000j;
}
object transformer_configuration {
  name "xcon_cimxfmrcode_xfmr_675_a_4";
  power_rating 10000.000;
  primary_voltage 2400.000;
  secondary_voltage 120.000;
  connect_type SINGLE_PHASE_CENTER_TAPPED;
  impedance 1.65000e-05+0.0163200j;
  impedance1 3.30000e-05+0.00816000j;
  impedance2 3.30000e-05+0.00816000j;
}
object transformer_configuration {
  name "xcon_cimxfmrcode_xfmr_675_a_1";
  power_rating 10000.000;
  primary_voltage 2400.000;
  secondary_voltage 120.000;
  connect_type SINGLE_PHASE_CENTER_TAPPED;
  impedance 1.65000e-05+0.0163200j;
  impedance1 3.30000e-05+0.00816000j;
  impedance2 3.30000e-05+0.00816000j;
}
object transformer_configuration {
  name "xcon_cimxfmrcode_xfmr_675_a_2";
  power_rating 10000.000;
  primary_voltage 2400.000;
  secondary_voltage 120.000;
  connect_type SINGLE_PHASE_CENTER_TAPPED;
  impedance 1.65000e-05+0.0163200j;
  impedance1 3.30000e-05+0.00816000j;
  impedance2 3.30000e-05+0.00816000j;
}
object transformer_configuration {
  name "xcon_cimxfmrcode_xfmr_692_a_3";
  power_rating 10000.000;
  primary_voltage 2400.000;
  secondary_voltage 120.000;
  connect_type SINGLE_PHASE_CENTER_TAPPED;
  impedance 1.65000e-05+0.0163200j;
  impedance1 3.30000e-05+0.00816000j;
  impedance2 3.30000e-05+0.00816000j;
}
object transformer_configuration {
  name "xcon_cimxfmrcode_xfmr_692_a_2";
  power_rating 10000.000;
  primary_voltage 2400.000;
  secondary_voltage 120.000;
  connect_type SINGLE_PHASE_CENTER_TAPPED;
  impedance 1.65000e-05+0.0163200j;
  impedance1 3.30000e-05+0.00816000j;
  impedance2 3.30000e-05+0.00816000j;
}
object transformer_configuration {
  name "xcon_cimxfmrcode_xfmr_692_a_5";
  power_rating 10000.000;
  primary_voltage 2400.000;
  secondary_voltage 120.000;
  connect_type SINGLE_PHASE_CENTER_TAPPED;
  impedance 1.65000e-05+0.0163200j;
  impedance1 3.30000e-05+0.00816000j;
  impedance2 3.30000e-05+0.00816000j;
}
object transformer_configuration {
  name "xcon_cimxfmrcode_xfmr_692_a_4";
  power_rating 10000.000;
  primary_voltage 2400.000;
  secondary_voltage 120.000;
  connect_type SINGLE_PHASE_CENTER_TAPPED;
  impedance 1.65000e-05+0.0163200j;
  impedance1 3.30000e-05+0.00816000j;
  impedance2 3.30000e-05+0.00816000j;
}
object capacitor {
  name "cap_cap1";
  parent "n675";
  phases ABCN;
  phases_connected ABCN;
  cap_nominal_voltage 1385.64;
  capacitor_A 300000.00;
  switchA CLOSED;
  capacitor_B 300000.00;
  switchB CLOSED;
  capacitor_C 300000.00;
  switchC CLOSED;
}
object capacitor {
  name "cap_cap2";
  parent "n675";
  phases ABCN;
  phases_connected ABCN;
  cap_nominal_voltage 1385.64;
  capacitor_A 249999.99;
  switchA CLOSED;
  capacitor_B 249999.99;
  switchB CLOSED;
  capacitor_C 249999.99;
  switchC CLOSED;
}
object overhead_line {
  name "line_ol_632_b_xfmr_632_b_2";
  from "meter_632_b";
  to "xfmr_meter_632_b_2";
  phases B;
  length 50.0009;
  continuous_rating_B 400.00;
  emergency_rating_B 600.00;
  configuration "lcon_1p_oh_code9_B";
}
object overhead_line {
  name "line_ol_632_b_xfmr_632_b_3";
  from "meter_632_b";
  to "xfmr_meter_632_b_3";
  phases B;
  length 50.0009;
  continuous_rating_B 400.00;
  emergency_rating_B 600.00;
  configuration "lcon_1p_oh_code9_B";
}
object overhead_line {
  name "line_ol_632_b_xfmr_632_b_4";
  from "meter_632_b";
  to "xfmr_meter_632_b_4";
  phases B;
  length 50.0009;
  continuous_rating_B 400.00;
  emergency_rating_B 600.00;
  configuration "lcon_1p_oh_code9_B";
}
object overhead_line {
  name "line_ol_632_b_xfmr_632_b_5";
  from "meter_632_b";
  to "xfmr_meter_632_b_5";
  phases B;
  length 50.0009;
  continuous_rating_B 400.00;
  emergency_rating_B 600.00;
  configuration "lcon_1p_oh_code9_B";
}
object overhead_line {
  name "line_ol_632_b_xfmr_632_b_1";
  from "meter_632_b";
  to "xfmr_meter_632_b_1";
  phases B;
  length 50.0009;
  continuous_rating_B 400.00;
  emergency_rating_B 600.00;
  configuration "lcon_1p_oh_code9_B";
}
object triplex_line {
  name "tpx_trip_line_645_b_h_5";
  from "trip_node_645_b_1";
  to "trip_load_645_b_h_5";
  phases BS;
  length 50.0009;
  continuous_rating_B 400.00;
  emergency_rating_B 600.00;
  configuration "tcon_2p_code10_12";
}
object triplex_line {
  name "tpx_trip_line_645_b_h_6";
  from "trip_node_645_b_1";
  to "trip_load_645_b_h_6";
  phases BS;
  length 50.0009;
  continuous_rating_B 400.00;
  emergency_rating_B 600.00;
  configuration "tcon_2p_code10_12";
}
object triplex_line {
  name "tpx_trip_line_645_b_h_7";
  from "trip_node_645_b_1";
  to "trip_load_645_b_h_7";
  phases BS;
  length 50.0009;
  continuous_rating_B 400.00;
  emergency_rating_B 600.00;
  configuration "tcon_2p_code10_12";
}
object triplex_line {
  name "tpx_trip_line_645_b_h_8";
  from "trip_node_645_b_1";
  to "trip_load_645_b_h_8";
  phases BS;
  length 50.0009;
  continuous_rating_B 400.00;
  emergency_rating_B 600.00;
  configuration "tcon_2p_code10_12";
}
object triplex_line {
  name "tpx_trip_line_645_b_h_9";
  from "trip_node_645_b_2";
  to "trip_load_645_b_h_9";
  phases BS;
  length 50.0009;
  continuous_rating_B 400.00;
  emergency_rating_B 600.00;
  configuration "tcon_2p_code10_12";
}
object triplex_line {
  name "tpx_trip_line_645_b_h_1";
  from "trip_node_645_b_1";
  to "trip_load_645_b_h_1";
  phases BS;
  length 50.0009;
  continuous_rating_B 400.00;
  emergency_rating_B 600.00;
  configuration "tcon_2p_code10_12";
}
object triplex_line {
  name "tpx_trip_line_645_b_h_2";
  from "trip_node_645_b_1";
  to "trip_load_645_b_h_2";
  phases BS;
  length 50.0009;
  continuous_rating_B 400.00;
  emergency_rating_B 600.00;
  configuration "tcon_2p_code10_12";
}
object triplex_line {
  name "tpx_trip_line_645_b_h_3";
  from "trip_node_645_b_1";
  to "trip_load_645_b_h_3";
  phases BS;
  length 50.0009;
  continuous_rating_B 400.00;
  emergency_rating_B 600.00;
  configuration "tcon_2p_code10_12";
}
object triplex_line {
  name "tpx_trip_line_645_b_h_4";
  from "trip_node_645_b_1";
  to "trip_load_645_b_h_4";
  phases BS;
  length 50.0009;
  continuous_rating_B 400.00;
  emergency_rating_B 600.00;
  configuration "tcon_2p_code10_12";
}
object overhead_line {
  name "line_ol_684_c_xfmr_684_c_5";
  from "meter_684_c";
  to "xfmr_meter_684_c_5";
  phases C;
  length 50.0009;
  continuous_rating_C 400.00;
  emergency_rating_C 600.00;
  configuration "lcon_1p_oh_code3_C";
}
object overhead_line {
  name "line_ol_684_c_xfmr_684_c_4";
  from "meter_684_c";
  to "xfmr_meter_684_c_4";
  phases C;
  length 50.0009;
  continuous_rating_C 400.00;
  emergency_rating_C 600.00;
  configuration "lcon_1p_oh_code3_C";
}
object overhead_line {
  name "line_ol_684_c_xfmr_684_c_3";
  from "meter_684_c";
  to "xfmr_meter_684_c_3";
  phases C;
  length 50.0009;
  continuous_rating_C 400.00;
  emergency_rating_C 600.00;
  configuration "lcon_1p_oh_code3_C";
}
object overhead_line {
  name "line_ol_684_c_xfmr_684_c_2";
  from "meter_684_c";
  to "xfmr_meter_684_c_2";
  phases C;
  length 50.0009;
  continuous_rating_C 400.00;
  emergency_rating_C 600.00;
  configuration "lcon_1p_oh_code3_C";
}
object overhead_line {
  name "line_ol_684_c_xfmr_684_c_1";
  from "meter_684_c";
  to "xfmr_meter_684_c_1";
  phases C;
  length 50.0009;
  continuous_rating_C 400.00;
  emergency_rating_C 600.00;
  configuration "lcon_1p_oh_code3_C";
}
object overhead_line {
  name "line_ol_675_c_xfmr_675_c_1";
  from "meter_675_c";
  to "xfmr_meter_675_c_1";
  phases C;
  length 50.0009;
  continuous_rating_C 400.00;
  emergency_rating_C 600.00;
  configuration "lcon_1p_oh_code3_C";
}
object triplex_line {
  name "tpx_trip_line_692_c_h_40";
  from "trip_node_692_c_5";
  to "trip_load_692_c_h_40";
  phases CS;
  length 50.0009;
  continuous_rating_C 400.00;
  emergency_rating_C 600.00;
  configuration "tcon_2p_code10_12";
}
object overhead_line {
  name "line_ol_675_c_xfmr_675_c_2";
  from "meter_675_c";
  to "xfmr_meter_675_c_2";
  phases C;
  length 50.0009;
  continuous_rating_C 400.00;
  emergency_rating_C 600.00;
  configuration "lcon_1p_oh_code3_C";
}
object overhead_line {
  name "line_ol_675_c_xfmr_675_c_3";
  from "meter_675_c";
  to "xfmr_meter_675_c_3";
  phases C;
  length 50.0009;
  continuous_rating_C 400.00;
  emergency_rating_C 600.00;
  configuration "lcon_1p_oh_code3_C";
}
object overhead_line {
  name "line_ol_675_c_xfmr_675_c_4";
  from "meter_675_c";
  to "xfmr_meter_675_c_4";
  phases C;
  length 50.0009;
  continuous_rating_C 400.00;
  emergency_rating_C 600.00;
  configuration "lcon_1p_oh_code3_C";
}
object overhead_line {
  name "line_ol_675_c_xfmr_675_c_5";
  from "meter_675_c";
  to "xfmr_meter_675_c_5";
  phases C;
  length 50.0009;
  continuous_rating_C 400.00;
  emergency_rating_C 600.00;
  configuration "lcon_1p_oh_code3_C";
}
object overhead_line {
  name "line_ol_671_c";
  from "n671";
  to "meter_671_c";
  phases C;
  length 50.0009;
  continuous_rating_C 400.00;
  emergency_rating_C 600.00;
  configuration "lcon_1p_oh_code3_C";
}
object overhead_line {
  name "line_ol_671_a";
  from "n671";
  to "meter_671_a";
  phases A;
  length 50.0009;
  continuous_rating_A 400.00;
  emergency_rating_A 600.00;
  configuration "lcon_1p_oh_code8_A";
}
object overhead_line {
  name "line_ol_671_b";
  from "n671";
  to "meter_671_b";
  phases B;
  length 50.0009;
  continuous_rating_B 400.00;
  emergency_rating_B 600.00;
  configuration "lcon_1p_oh_code9_B";
}
object triplex_line {
  name "tpx_trip_line_632_a_h_6";
  from "trip_node_632_a_1";
  to "trip_load_632_a_h_6";
  phases AS;
  length 50.0009;
  continuous_rating_A 400.00;
  emergency_rating_A 600.00;
  configuration "tcon_2p_code10_12";
}
object triplex_line {
  name "tpx_trip_line_632_a_h_7";
  from "trip_node_632_a_1";
  to "trip_load_632_a_h_7";
  phases AS;
  length 50.0009;
  continuous_rating_A 400.00;
  emergency_rating_A 600.00;
  configuration "tcon_2p_code10_12";
}
object triplex_line {
  name "tpx_trip_line_632_a_h_4";
  from "trip_node_632_a_1";
  to "trip_load_632_a_h_4";
  phases AS;
  length 50.0009;
  continuous_rating_A 400.00;
  emergency_rating_A 600.00;
  configuration "tcon_2p_code10_12";
}
object triplex_line {
  name "tpx_trip_line_632_a_h_5";
  from "trip_node_632_a_1";
  to "trip_load_632_a_h_5";
  phases AS;
  length 50.0009;
  continuous_rating_A 400.00;
  emergency_rating_A 600.00;
  configuration "tcon_2p_code10_12";
}
object triplex_line {
  name "tpx_trip_line_632_a_h_2";
  from "trip_node_632_a_1";
  to "trip_load_632_a_h_2";
  phases AS;
  length 50.0009;
  continuous_rating_A 400.00;
  emergency_rating_A 600.00;
  configuration "tcon_2p_code10_12";
}
object triplex_line {
  name "tpx_trip_line_632_a_h_3";
  from "trip_node_632_a_1";
  to "trip_load_632_a_h_3";
  phases AS;
  length 50.0009;
  continuous_rating_A 400.00;
  emergency_rating_A 600.00;
  configuration "tcon_2p_code10_12";
}
object triplex_line {
  name "tpx_trip_line_632_a_h_1";
  from "trip_node_632_a_1";
  to "trip_load_632_a_h_1";
  phases AS;
  length 50.0009;
  continuous_rating_A 400.00;
  emergency_rating_A 600.00;
  configuration "tcon_2p_code10_12";
}
object triplex_line {
  name "tpx_trip_line_632_a_h_8";
  from "trip_node_632_a_1";
  to "trip_load_632_a_h_8";
  phases AS;
  length 50.0009;
  continuous_rating_A 400.00;
  emergency_rating_A 600.00;
  configuration "tcon_2p_code10_12";
}
object triplex_line {
  name "tpx_trip_line_632_a_h_9";
  from "trip_node_632_a_2";
  to "trip_load_632_a_h_9";
  phases AS;
  length 50.0009;
  continuous_rating_A 400.00;
  emergency_rating_A 600.00;
  configuration "tcon_2p_code10_12";
}
object triplex_line {
  name "tpx_trip_line_671_a_h_40";
  from "trip_node_671_a_5";
  to "trip_load_671_a_h_40";
  phases AS;
  length 50.0009;
  continuous_rating_A 400.00;
  emergency_rating_A 600.00;
  configuration "tcon_2p_code10_12";
}
object triplex_line {
  name "tpx_trip_line_692_b_h_12";
  from "trip_node_692_b_2";
  to "trip_load_692_b_h_12";
  phases BS;
  length 50.0009;
  continuous_rating_B 400.00;
  emergency_rating_B 600.00;
  configuration "tcon_2p_code10_12";
}
object triplex_line {
  name "tpx_trip_line_692_b_h_13";
  from "trip_node_692_b_2";
  to "trip_load_692_b_h_13";
  phases BS;
  length 50.0009;
  continuous_rating_B 400.00;
  emergency_rating_B 600.00;
  configuration "tcon_2p_code10_12";
}
object triplex_line {
  name "tpx_trip_line_692_b_h_10";
  from "trip_node_692_b_2";
  to "trip_load_692_b_h_10";
  phases BS;
  length 50.0009;
  continuous_rating_B 400.00;
  emergency_rating_B 600.00;
  configuration "tcon_2p_code10_12";
}
object triplex_line {
  name "tpx_trip_line_692_b_h_11";
  from "trip_node_692_b_2";
  to "trip_load_692_b_h_11";
  phases BS;
  length 50.0009;
  continuous_rating_B 400.00;
  emergency_rating_B 600.00;
  configuration "tcon_2p_code10_12";
}
object triplex_line {
  name "tpx_trip_line_692_b_h_16";
  from "trip_node_692_b_2";
  to "trip_load_692_b_h_16";
  phases BS;
  length 50.0009;
  continuous_rating_B 400.00;
  emergency_rating_B 600.00;
  configuration "tcon_2p_code10_12";
}
object triplex_line {
  name "tpx_trip_line_692_b_h_17";
  from "trip_node_692_b_3";
  to "trip_load_692_b_h_17";
  phases BS;
  length 50.0009;
  continuous_rating_B 400.00;
  emergency_rating_B 600.00;
  configuration "tcon_2p_code10_12";
}
object triplex_line {
  name "tpx_trip_line_692_b_h_14";
  from "trip_node_692_b_2";
  to "trip_load_692_b_h_14";
  phases BS;
  length 50.0009;
  continuous_rating_B 400.00;
  emergency_rating_B 600.00;
  configuration "tcon_2p_code10_12";
}
object triplex_line {
  name "tpx_trip_line_692_b_h_15";
  from "trip_node_692_b_2";
  to "trip_load_692_b_h_15";
  phases BS;
  length 50.0009;
  continuous_rating_B 400.00;
  emergency_rating_B 600.00;
  configuration "tcon_2p_code10_12";
}
object triplex_line {
  name "tpx_trip_line_692_b_h_18";
  from "trip_node_692_b_3";
  to "trip_load_692_b_h_18";
  phases BS;
  length 50.0009;
  continuous_rating_B 400.00;
  emergency_rating_B 600.00;
  configuration "tcon_2p_code10_12";
}
object triplex_line {
  name "tpx_trip_line_692_b_h_19";
  from "trip_node_692_b_3";
  to "trip_load_692_b_h_19";
  phases BS;
  length 50.0009;
  continuous_rating_B 400.00;
  emergency_rating_B 600.00;
  configuration "tcon_2p_code10_12";
}
object triplex_line {
  name "tpx_trip_line_692_c_h_25";
  from "trip_node_692_c_4";
  to "trip_load_692_c_h_25";
  phases CS;
  length 50.0009;
  continuous_rating_C 400.00;
  emergency_rating_C 600.00;
  configuration "tcon_2p_code10_12";
}
object triplex_line {
  name "tpx_trip_line_692_c_h_24";
  from "trip_node_692_c_3";
  to "trip_load_692_c_h_24";
  phases CS;
  length 50.0009;
  continuous_rating_C 400.00;
  emergency_rating_C 600.00;
  configuration "tcon_2p_code10_12";
}
object triplex_line {
  name "tpx_trip_line_692_c_h_23";
  from "trip_node_692_c_3";
  to "trip_load_692_c_h_23";
  phases CS;
  length 50.0009;
  continuous_rating_C 400.00;
  emergency_rating_C 600.00;
  configuration "tcon_2p_code10_12";
}
object triplex_line {
  name "tpx_trip_line_692_c_h_22";
  from "trip_node_692_c_3";
  to "trip_load_692_c_h_22";
  phases CS;
  length 50.0009;
  continuous_rating_C 400.00;
  emergency_rating_C 600.00;
  configuration "tcon_2p_code10_12";
}
object triplex_line {
  name "tpx_trip_line_692_c_h_21";
  from "trip_node_692_c_3";
  to "trip_load_692_c_h_21";
  phases CS;
  length 50.0009;
  continuous_rating_C 400.00;
  emergency_rating_C 600.00;
  configuration "tcon_2p_code10_12";
}
object triplex_line {
  name "tpx_trip_line_692_c_h_20";
  from "trip_node_692_c_3";
  to "trip_load_692_c_h_20";
  phases CS;
  length 50.0009;
  continuous_rating_C 400.00;
  emergency_rating_C 600.00;
  configuration "tcon_2p_code10_12";
}
object triplex_line {
  name "tpx_trip_line_632_b_h_40";
  from "trip_node_632_b_5";
  to "trip_load_632_b_h_40";
  phases BS;
  length 50.0009;
  continuous_rating_B 400.00;
  emergency_rating_B 600.00;
  configuration "tcon_2p_code10_12";
}
object triplex_line {
  name "tpx_trip_line_692_c_h_29";
  from "trip_node_692_c_4";
  to "trip_load_692_c_h_29";
  phases CS;
  length 50.0009;
  continuous_rating_C 400.00;
  emergency_rating_C 600.00;
  configuration "tcon_2p_code10_12";
}
object triplex_line {
  name "tpx_trip_line_692_c_h_28";
  from "trip_node_692_c_4";
  to "trip_load_692_c_h_28";
  phases CS;
  length 50.0009;
  continuous_rating_C 400.00;
  emergency_rating_C 600.00;
  configuration "tcon_2p_code10_12";
}
object triplex_line {
  name "tpx_trip_line_692_c_h_27";
  from "trip_node_692_c_4";
  to "trip_load_692_c_h_27";
  phases CS;
  length 50.0009;
  continuous_rating_C 400.00;
  emergency_rating_C 600.00;
  configuration "tcon_2p_code10_12";
}
object triplex_line {
  name "tpx_trip_line_692_c_h_26";
  from "trip_node_692_c_4";
  to "trip_load_692_c_h_26";
  phases CS;
  length 50.0009;
  continuous_rating_C 400.00;
  emergency_rating_C 600.00;
  configuration "tcon_2p_code10_12";
}
object triplex_line {
  name "tpx_trip_line_671_a_h_31";
  from "trip_node_671_a_4";
  to "trip_load_671_a_h_31";
  phases AS;
  length 50.0009;
  continuous_rating_A 400.00;
  emergency_rating_A 600.00;
  configuration "tcon_2p_code10_12";
}
object triplex_line {
  name "tpx_trip_line_671_a_h_30";
  from "trip_node_671_a_4";
  to "trip_load_671_a_h_30";
  phases AS;
  length 50.0009;
  continuous_rating_A 400.00;
  emergency_rating_A 600.00;
  configuration "tcon_2p_code10_12";
}
object triplex_line {
  name "tpx_trip_line_692_b_h_20";
  from "trip_node_692_b_3";
  to "trip_load_692_b_h_20";
  phases BS;
  length 50.0009;
  continuous_rating_B 400.00;
  emergency_rating_B 600.00;
  configuration "tcon_2p_code10_12";
}
object triplex_line {
  name "tpx_trip_line_632_b_h_39";
  from "trip_node_632_b_5";
  to "trip_load_632_b_h_39";
  phases BS;
  length 50.0009;
  continuous_rating_B 400.00;
  emergency_rating_B 600.00;
  configuration "tcon_2p_code10_12";
}
object triplex_line {
  name "tpx_trip_line_632_b_h_38";
  from "trip_node_632_b_5";
  to "trip_load_632_b_h_38";
  phases BS;
  length 50.0009;
  continuous_rating_B 400.00;
  emergency_rating_B 600.00;
  configuration "tcon_2p_code10_12";
}
object triplex_line {
  name "tpx_trip_line_632_b_h_37";
  from "trip_node_632_b_5";
  to "trip_load_632_b_h_37";
  phases BS;
  length 50.0009;
  continuous_rating_B 400.00;
  emergency_rating_B 600.00;
  configuration "tcon_2p_code10_12";
}
object triplex_line {
  name "tpx_trip_line_671_a_h_35";
  from "trip_node_671_a_5";
  to "trip_load_671_a_h_35";
  phases AS;
  length 50.0009;
  continuous_rating_A 400.00;
  emergency_rating_A 600.00;
  configuration "tcon_2p_code10_12";
}
object triplex_line {
  name "tpx_trip_line_692_b_h_23";
  from "trip_node_692_b_3";
  to "trip_load_692_b_h_23";
  phases BS;
  length 50.0009;
  continuous_rating_B 400.00;
  emergency_rating_B 600.00;
  configuration "tcon_2p_code10_12";
}
object triplex_line {
  name "tpx_trip_line_632_b_h_36";
  from "trip_node_632_b_5";
  to "trip_load_632_b_h_36";
  phases BS;
  length 50.0009;
  continuous_rating_B 400.00;
  emergency_rating_B 600.00;
  configuration "tcon_2p_code10_12";
}
object triplex_line {
  name "tpx_trip_line_671_a_h_34";
  from "trip_node_671_a_5";
  to "trip_load_671_a_h_34";
  phases AS;
  length 50.0009;
  continuous_rating_A 400.00;
  emergency_rating_A 600.00;
  configuration "tcon_2p_code10_12";
}
object triplex_line {
  name "tpx_trip_line_692_b_h_24";
  from "trip_node_692_b_3";
  to "trip_load_692_b_h_24";
  phases BS;
  length 50.0009;
  continuous_rating_B 400.00;
  emergency_rating_B 600.00;
  configuration "tcon_2p_code10_12";
}
object triplex_line {
  name "tpx_trip_line_632_b_h_35";
  from "trip_node_632_b_5";
  to "trip_load_632_b_h_35";
  phases BS;
  length 50.0009;
  continuous_rating_B 400.00;
  emergency_rating_B 600.00;
  configuration "tcon_2p_code10_12";
}
object triplex_line {
  name "tpx_trip_line_671_a_h_33";
  from "trip_node_671_a_5";
  to "trip_load_671_a_h_33";
  phases AS;
  length 50.0009;
  continuous_rating_A 400.00;
  emergency_rating_A 600.00;
  configuration "tcon_2p_code10_12";
}
object triplex_line {
  name "tpx_trip_line_692_b_h_21";
  from "trip_node_692_b_3";
  to "trip_load_692_b_h_21";
  phases BS;
  length 50.0009;
  continuous_rating_B 400.00;
  emergency_rating_B 600.00;
  configuration "tcon_2p_code10_12";
}
object triplex_line {
  name "tpx_trip_line_632_b_h_34";
  from "trip_node_632_b_5";
  to "trip_load_632_b_h_34";
  phases BS;
  length 50.0009;
  continuous_rating_B 400.00;
  emergency_rating_B 600.00;
  configuration "tcon_2p_code10_12";
}
object triplex_line {
  name "tpx_trip_line_671_a_h_32";
  from "trip_node_671_a_4";
  to "trip_load_671_a_h_32";
  phases AS;
  length 50.0009;
  continuous_rating_A 400.00;
  emergency_rating_A 600.00;
  configuration "tcon_2p_code10_12";
}
object triplex_line {
  name "tpx_trip_line_692_b_h_22";
  from "trip_node_692_b_3";
  to "trip_load_692_b_h_22";
  phases BS;
  length 50.0009;
  continuous_rating_B 400.00;
  emergency_rating_B 600.00;
  configuration "tcon_2p_code10_12";
}
object triplex_line {
  name "tpx_trip_line_671_a_h_39";
  from "trip_node_671_a_5";
  to "trip_load_671_a_h_39";
  phases AS;
  length 50.0009;
  continuous_rating_A 400.00;
  emergency_rating_A 600.00;
  configuration "tcon_2p_code10_12";
}
object triplex_line {
  name "tpx_trip_line_692_b_h_27";
  from "trip_node_692_b_4";
  to "trip_load_692_b_h_27";
  phases BS;
  length 50.0009;
  continuous_rating_B 400.00;
  emergency_rating_B 600.00;
  configuration "tcon_2p_code10_12";
}
object triplex_line {
  name "tpx_trip_line_671_a_h_38";
  from "trip_node_671_a_5";
  to "trip_load_671_a_h_38";
  phases AS;
  length 50.0009;
  continuous_rating_A 400.00;
...